[General]
network = Network

cmdenv-status-frequency = 600s



#sizes = {1177 , 4264 , 15443 , 28000 , 37323 , 51067 , 74908 , 93293 ,141819 , 237853 , 573344 , 2076744 , 7521945 , 27244995 ,  98686787 , 223092956};

#{37323, 44195, 51067, 62987.5, 74908, 90228.8, 117556, 173830., 293768., 223092956}
#cache sizes = { 50 , 100 , 150 , 200 , 300 , 500 , 800}
#flow_sizes = { 1177 , 28000 , 27244995 , 223092956}

#{1177, 28000, 37323, 51067, 62987.5, 74908, 90228.8, 117556, 293768, 27244995, 223092956}


Network.x = ${N = 3}

#{37323 , 51067 , 62987.5 , 117556}
Network.cache_size = "2"
#Network.cache_size = ${C = "50","100","150","200","300","500","800"}
#  150000   15000000
Network.push_threshold_in_aggregation = "150000"
#Network.push_threshold_in_aggregation = ${T = "1177", "28000", "37323", "51067", "62987.5", "117556", "27244995", "223092956"}
Network.push_threshold_in_controller_switch = "1000"
#result-dir = my_results/static push with different cache sizes i websearch/2.5 G cache = 50 till 800/




Network.run_elephant = false
Network.bandwidth_elephant_threshold = ""

Network.run_push = true


Network.record_traffic = false
Network.create_offline_traffic = false
Network.rack[*].number_of_hosts = 500

result-dir = my_results/test c = 1 t = 150000/
#result-dir = my_results/ccc/

Network.output_file = "${resultdir}"
#Network.output_file = "my_results/ccc ${N}/"


#output-scalar-file = "aa/bb/histograms.sca"
#output-vector-file = "aa/bb/vectors.vec"

#cmdenv-output-file = dd




sim-time-limit = 11s #limit of simulation time 
debug-on-errors = true
**.vector-recording =true

Network.NumOfToRs = 5
Network.NumOfAggregation = 3

#result-dir = my_results/ccc/




Network.linedelay = 0.2


Network.tor[*].CacheSize = 0
Network.agg[*].CacheSize = 0
Network.controllerswitch.CacheSize = 0


Network.tor[*].threshold = 2
Network.agg[*].threshold = 2
Network.controllerswitch.threshold = 1



Network.tor[*].Type = 1001
Network.agg[*].Type = 1002
Network.controllerswitch.Type = 1003





Network.rack[*].host[*].flow_appearance = ""
Network.rack[*].host[*].flow_size = ""
Network.policy_size = ""
Network.cache_size = ""
Network.propagation_time = ""
Network.processing_time_on_data_packet_in_sw = ""
Network.processing_time_on_data_packet_in_controller = ""
Network.insertion_delay = ""
Network.eviction_delay = ""
Network.elephant_table_size = ""
Network.flush_elephant_time = ""
Network.check_for_elephant_time = ""
Network.elephant_sample_rx = ""

Network.already_requested_threshold = ""
Network.push_threshold_in_aggregation = ""
Network.push_threshold_in_controller_switch = ""
Network.cache_percentage = ""
Network.eviction_sample_size = ""
Network.inter_arrival_time_between_packets = ""
Network.inter_arrival_time_between_flowlets = ""
Network.inter_arrival_time_between_flows = ""
Network.large_flow = ""
Network.last_flow_appearance = "0"
Network.rack[*].last_flow_appearance = "0"




